24

	    C    -1.8889106417  -0.2354796926   0.0021563700
	    N    -0.9643930238  -1.3234202406   0.0018210273
	    C    -1.4722889970  -2.7027655555   0.0031152604
	    H    -2.5597379888  -2.6536665019   0.0043198105
	    O     0.4710716344   2.5822606646  -0.0020381326
	    O    -3.0987004505  -0.3995091726   0.0035135663
	    N     2.3146469691   0.0491677942  -0.0024742281
	    N    -1.3126453911   1.0823503515   0.0007227041
	    N     1.4237783447  -2.0337745322  -0.0004059804
	    C     0.9197679350   0.1992429766  -0.0010737648
	    C     0.4175319041  -1.0593560221   0.0001930385
	    C     0.0875400003   1.4210912927  -0.0008961239
	    C     2.5373968182  -1.3092842583  -0.0019347671
	    C     3.3232617549   1.1232035154  -0.0039968460
	    C    -2.2855677974   2.1894563717   0.0010508728
	    H     3.5434058100  -1.7151035515  -0.0027772027
	    H    -1.1327921367  -3.2405669791  -0.8835120833
	    H    -1.1307847125  -3.2396271109   0.8895402586
	    H     4.3129391720   0.6693949429  -0.0054789120
	    H     3.2093308318   1.7477725917  -0.8914969625
	    H     3.2120267832   1.7478296107   0.8838119458
	    H    -1.7257666985   3.1221315644  -0.0004484283
	    H    -2.9205462400   2.1488447781   0.8870163504
	    H    -2.9228091322   2.1473316478  -0.8832134598
24

	    C    -1.8918349646  -0.2081437543   0.0255031830
	    N    -0.9838455561  -1.3094257447  -0.0141767597
	    C    -1.5110141630  -2.6807972694   0.0338004701
	    H    -2.5955172041  -2.6209197841  -0.0388281499
	    O     0.5084648226   2.5751639673  -0.0066537206
	    O    -3.1034071060  -0.3546950809   0.0607623894
	    N     2.3148191441   0.0156250879  -0.0284117637
	    N    -1.2968130061   1.1013373745   0.0099527450
	    N     1.3939299752  -2.0542081829  -0.0270577766
	    C     0.9223100375   0.1858646062  -0.0174875731
	    C     0.4019353290  -1.0653687446  -0.0171095407
	    C     0.1080066691   1.4197317378  -0.0052122438
	    C     2.5178802551  -1.3458986418  -0.0341788757
	    C     3.3389713775   1.0748657073  -0.0328858823
	    C    -2.2533189017   2.2223546240   0.0357958922
	    H     3.5178678885  -1.7662454926  -0.0428422024
	    H    -1.1203017540  -3.2668295295  -0.7988298358
	    H    -1.2370540612  -3.1746605719   0.9679236516
	    H     4.3218642095   0.6066398240  -0.0429596959
	    H     3.2280441978   1.7044221088  -0.9172324757
	    H     3.2430505896   1.6976550097   0.8579987090
	    H    -1.6803849672   3.1468714188   0.0184525038
	    H    -2.8651575971   2.1917444564   0.9383716288
	    H    -2.9142694798   2.1885855602  -0.8311970190
24

	    C    -1.8870350758  -0.2427565064   0.0410422810
	    N    -0.9607454308  -1.3274398771  -0.0327460731
	    C    -1.4615450313  -2.7067443006   0.0583110032
	    H    -2.5392000002  -2.6807868568  -0.0935738235
	    O     0.4615054287   2.5838479859  -0.0092487141
	    O    -3.0943503163  -0.4115880973   0.1057550721
	    N     2.3135928888   0.0578702061  -0.0449924583
	    N    -1.3168323539   1.0775755560   0.0127228549
	    N     1.4308639907  -2.0284290962  -0.0476497587
	    C     0.9182497031   0.2024414880  -0.0300021703
	    C     0.4208518696  -1.0580627091  -0.0324230745
	    C     0.0818262061   1.4214071091  -0.0091668953
	    C     2.5416167484  -1.2996691035  -0.0551925028
	    C     3.3181112478   1.1357643342  -0.0487051332
	    C    -2.2930669850   2.1807229651   0.0599159333
	    H     3.5491174843  -1.7015807747  -0.0672449101
	    H    -0.9965249640  -3.3231693294  -0.7111609839
	    H    -1.2464844183  -3.1446614578   1.0352758891
	    H     4.3093963849   0.6857026370  -0.0632710678
	    H     3.1929956188   1.7662032167  -0.9305224902
	    H     3.2134408900   1.7536310432   0.8446232848
	    H    -1.7380607780   3.1156527105   0.0259311044
	    H    -2.8820616383   2.1420664362   0.9773465940
	    H    -2.9741871482   2.1315158409  -0.7904810979
24

	    C    -1.8844173423  -0.2493537533   0.0767905309
	    N    -0.9577922185  -1.3313208654  -0.0347497529
	    C    -1.4513153366  -2.7099729027   0.1009566200
	    H    -2.5165242234  -2.7108404802  -0.1239730361
	    O     0.4524446859   2.5851294039  -0.0228528009
	    O    -3.0881331631  -0.4226293443   0.1822596908
	    N     2.3118524984   0.0658197488  -0.0850415854
	    N    -1.3205745253   1.0732045064   0.0263693367
	    N     1.4368463164  -2.0235880998  -0.0782862764
	    C     0.9163389839   0.2052016260  -0.0514914126
	    C     0.4235070172  -1.0570574406  -0.0477032260
	    C     0.0763520953   1.4215512555  -0.0167487696
	    C     2.5447573106  -1.2908579709  -0.0982133810
	    C     3.3122420458   1.1474390630  -0.1014981487
	    C    -2.2990423431   2.1728728468   0.1006445965
	    H     3.5534771375  -1.6890934715  -0.1232138348
	    H    -0.9261843504  -3.3560166868  -0.6018753471
	    H    -1.2990706812  -3.0941251904   1.1120580830
	    H     4.3049075348   0.7010409529  -0.1290267639
	    H     3.1733603389   1.7775957597  -0.9814497281
	    H     3.2168788696   1.7647155131   0.7932755265
	    H    -1.7497293874   3.1097367826   0.0388674575
	    H    -2.8545539256   2.1401690222   1.0390484742
	    H    -3.0099965089   2.1132200022  -0.7241524701
24

	    C    -1.8763487321  -0.2962799740   0.0868304606
	    N    -0.9254037061  -1.3555178814  -0.0436660430
	    C    -1.3844713007  -2.7430250873   0.1233843901
	    H    -2.4242255267  -2.8010209677  -0.1947186575
	    O     0.3879204692   2.5952252114  -0.0319257503
	    O    -3.0730837381  -0.4999712443   0.2140832662
	    N     2.3087638574   0.1233931470  -0.0943512413
	    N    -1.3472872335   1.0401301448   0.0221597463
	    N     1.4869066966  -1.9873182223  -0.0851575393
	    C     0.9102178824   0.2274406264  -0.0593563775
	    C     0.4493774078  -1.0468204940  -0.0540314684
	    C     0.0404218740   1.4228078128  -0.0237236302
	    C     2.5759196136  -1.2269441385  -0.1066898740
	    C     3.2814508749   1.2299723584  -0.1128543301
	    C    -2.3520199168   2.1150480979   0.1072630905
	    H     3.5943427204  -1.5996259460  -0.1323185004
	    H    -0.7730321975  -3.3985268823  -0.4951615977
	    H    -1.3122492250  -3.0712343820   1.1629245031
	    H     4.2850474471   0.8087933901  -0.1414179445
	    H     3.1254848766   1.8557826027  -0.9930417646
	    H     3.1716943226   1.8452713732   0.7816319179
	    H    -1.8284689246   3.0651628641   0.0268876896
	    H    -2.8883940871   2.0769060908   1.0566219505
	    H    -3.0768697315   2.0294261243  -0.7029230390
24

	    C    -1.8668257119  -0.3283548348   0.1402421878
	    N    -0.9027163444  -1.3725135132  -0.0158433009
	    C    -1.3347922886  -2.7632807137   0.1935267685
	    H    -2.3436055660  -2.8790545028  -0.2003249337
	    O     0.3410408413   2.6008334137  -0.0680562348
	    O    -3.0540387457  -0.5526619976   0.3131828375
	    N     2.3027202402   0.1630324794  -0.1562304532
	    N    -1.3650565456   1.0166216426   0.0414104322
	    N     1.5198604417  -1.9617567331  -0.1076918765
	    C     0.9037656817   0.2422907474  -0.0876114455
	    C     0.4663611202  -1.0399203534  -0.0598243823
	    C     0.0141655562   1.4227775560  -0.0411382915
	    C     2.5939747413  -1.1823041845  -0.1638688806
	    C     3.2543725095   1.2866873622  -0.2088117556
	    C    -2.3855910758   2.0745036973   0.1489325262
	    H     3.6180287549  -1.5369593145  -0.2115943889
	    H    -0.6538337436  -3.4258882453  -0.3381645457
	    H    -1.3364244824  -3.0328691601   1.2524130404
	    H     4.2644517900   0.8833369309  -0.2584340079
	    H     3.0654171711   1.9012111167  -1.0904868038
	    H     3.1554811138   1.9083726783   0.6825196088
	    H    -1.8837694934   3.0325092342   0.0318917308
	    H    -2.8836191540   2.0437809146   1.1193091832
	    H    -3.1397843957   1.9609973225  -0.6303549735
24

	    C    -1.8590546252  -0.3598998951   0.1540453266
	    N    -0.8784041738  -1.3883861142  -0.0015811313
	    C    -1.2898240970  -2.7830366353   0.2243232705
	    H    -2.2424900489  -2.9598206861  -0.2740177897
	    O     0.2953641524   2.6055652871  -0.0904817131
	    O    -3.0400981703  -0.6049330748   0.3404678632
	    N     2.2986718527   0.2022461657  -0.1707083108
	    N    -1.3826168932   0.9929747983   0.0381582389
	    N     1.5542649529  -1.9356142469  -0.1018913111
	    C     0.8988194957   0.2570694071  -0.0950498460
	    C     0.4846339518  -1.0325455234  -0.0550236526
	    C    -0.0110501246   1.4222913876  -0.0531736533
	    C     2.6139092356  -1.1376196183  -0.1702679046
	    C     3.2297419769   1.3422916739  -0.2372246733
	    C    -2.4206990110   2.0336238586   0.1455518748
	    H     3.6438422645  -1.4743894255  -0.2211578327
	    H    -0.5292127856  -3.4389986432  -0.1950467073
	    H    -1.4039493821  -3.0044468244   1.2881731786
	    H     4.2466214746   0.9566883024  -0.2890144527
	    H     3.0252365439   1.9462528708  -1.1227209077
	    H     3.1242952454   1.9692187459   0.6496693072
	    H    -1.9384390164   2.9988731510   0.0075769206
	    H    -2.9045121865   2.0084449108   1.1233203075
	    H    -3.1834235264   1.8945813638  -0.6211221225
24

	    C    -1.8548918639  -0.3595936230   0.1972890615
	    N    -0.8744322107  -1.3877102707   0.0477123789
	    C    -1.2894259608  -2.7820740617   0.2665605833
	    H    -2.1654362673  -3.0043995510  -0.3431598770
	    O     0.2914626619   2.6048866675  -0.1224390036
	    O    -3.0336285490  -0.6058994060   0.3961346001
	    N     2.2948357065   0.2022890323  -0.2239061775
	    N    -1.3808780416   0.9928362737   0.0690902223
	    N     1.5547220902  -1.9352057160  -0.1128792070
	    C     0.8971047002   0.2569619984  -0.1134854740
	    C     0.4856547598  -1.0326085528  -0.0486909428
	    C    -0.0126844213   1.4218780010  -0.0624934738
	    C     2.6112482593  -1.1371836847  -0.2188974346
	    C     3.2227991680   1.3421842505  -0.3264078899
	    C    -2.4183491154   2.0335559726   0.1802161020
	    H     3.6398186252  -1.4737989287  -0.2932643364
	    H    -0.4669827895  -3.4317952093  -0.0264692019
	    H    -1.5368713127  -2.9660751359   1.3143899639
	    H     4.2386807826   0.9568268424  -0.3962855706
	    H     2.9975680400   1.9344468907  -1.2147789541
	    H     3.1367137126   1.9804437383   0.5544454305
	    H    -1.9375925405   2.9982290472   0.0325714546
	    H    -2.8926302735   2.0131361374   1.1628404259
	    H    -3.1886689439   1.8904992890  -0.5783367536
24

	    C    -1.8443125159  -0.3967701591   0.2281029410
	    N    -0.8311797021  -1.3996131330   0.1741426026
	    C    -1.2308768563  -2.8073822658   0.3205850823
	    H    -1.9298812332  -3.0924934636  -0.4676090016
	    O     0.2299506249   2.6069037714  -0.1938887357
	    O    -3.0242025594  -0.6697256302   0.3817861727
	    N     2.2871552386   0.2488351930  -0.2655664438
	    N    -1.3989232632   0.9641387976   0.0883016372
	    N     1.6019603471  -1.8994627255  -0.0546644920
	    C     0.8918628615   0.2756369496  -0.1170909330
	    C     0.5136559540  -1.0199735283   0.0066057078
	    C    -0.0444947959   1.4197991594  -0.0882317323
	    C     2.6357815962  -1.0816208742  -0.2184796442
	    C     3.1840735809   1.4048914592  -0.4389294380
	    C    -2.4641316127   1.9809718190   0.1429685421
	    H     3.6696513644  -1.3971943011  -0.3100283860
	    H    -0.3356875523  -3.4218679951   0.2503513615
	    H    -1.7110134794  -2.9743776785   1.2864892456
	    H     4.2076033661   1.0413281399  -0.5139855490
	    H     2.9258503848   1.9515850654  -1.3473689091
	    H     3.1002528697   2.0793629332   0.4146988945
	    H    -1.9974418318   2.9564124004   0.0246860557
	    H    -2.9891765937   1.9435825694   1.0983770748
	    H    -3.1900062042   1.8267267213  -0.6564610160
24

	    C    -1.8466903077  -0.3615410424   0.2595549880
	    N    -0.8437947669  -1.3785598996   0.2838348885
	    C    -1.2789694267  -2.7841332013   0.2966765149
	    H    -1.7578151674  -3.0633474143  -0.6446454623
	    O     0.2761787310   2.6019142577  -0.1967897618
	    O    -3.0367546348  -0.6161136687   0.3535324797
	    N     2.2838801420   0.2040488521  -0.3160183404
	    N    -1.3744547251   0.9930736662   0.1485934963
	    N     1.5668641305  -1.9280714977  -0.0533140685
	    C     0.8961932005   0.2592195948  -0.1156495104
	    C     0.4983179347  -1.0271478003   0.0375711472
	    C    -0.0174870931   1.4213427059  -0.0721301753
	    C     2.6089761946  -1.1324057404  -0.2660374866
	    C     3.1951417072   1.3406874453  -0.5366515467
	    C    -2.4246467077   2.0266792144   0.1738535849
	    H     3.6324247623  -1.4688095747  -0.3932893421
	    H    -0.4029947735  -3.4104153480   0.4532498691
	    H    -1.9911160848  -2.9408315592   1.1072516685
	    H     4.2084138007   0.9568834698  -0.6434077905
	    H     2.9146686810   1.8808311611  -1.4424247199
	    H     3.1544746703   2.0271679222   0.3105126842
	    H    -1.9370513776   2.9965271472   0.1027230548
	    H    -2.9949606885   1.9734432110   1.1018697036
	    H    -3.1142341534   1.9063228495  -0.6631478588
24

	    C    -1.8457571358  -0.3517779338   0.2816128314
	    N    -0.8386769401  -1.3621025173   0.3730680735
	    C    -1.2662178977  -2.7684432982   0.4419071020
	    H    -1.6034200594  -3.1366494045  -0.5299181910
	    O     0.2682692858   2.5879687668  -0.3391170003
	    O    -3.0358441602  -0.6036496030   0.3811555486
	    N     2.2820917090   0.1921758532  -0.3316133277
	    N    -1.3766465447   0.9965713401   0.1016083492
	    N     1.5717135365  -1.9235326684   0.0534577426
	    C     0.8952546436   0.2551475516  -0.1288343571
	    C     0.5012177362  -1.0213613388   0.0980658881
	    C    -0.0215720037   1.4154861398  -0.1475323862
	    C     2.6109294295  -1.1386856172  -0.2080035797
	    C     3.1894423279   1.3167774043  -0.6196338822
	    C    -2.4302307771   2.0265055722   0.0661410774
	    H     3.6348421799  -1.4790889395  -0.3198442301
	    H    -0.4228985937  -3.3693566764   0.7769384182
	    H    -2.0874339552  -2.8584366479   1.1523479813
	    H     4.2036177666   0.9303337224  -0.7064115865
	    H     2.9054544627   1.8029793197  -1.5544166498
	    H     3.1485143438   2.0508354697   0.1866263633
	    H    -1.9453777753   2.9928835717  -0.0533642449
	    H    -3.0053999344   2.0202222322   0.9925092721
	    H    -3.1147572266   1.8599903980  -0.7670019194
24

	    C    -1.8503249559  -0.3062124112   0.3088063759
	    N    -0.8726593168  -1.3486098215   0.3427256759
	    C    -1.3359430772  -2.7446985048   0.3725818944
	    H    -1.5804255480  -3.1124971257  -0.6268799807
	    O     0.3396091311   2.5892666545  -0.2564120259
	    O    -3.0453081503  -0.5240519203   0.4284272695
	    N     2.2797259394   0.1354460146  -0.3724435936
	    N    -1.3437023246   1.0325607774   0.1624570786
	    N     1.5120459864  -1.9702437182  -0.0456758788
	    C     0.8998862603   0.2330408514  -0.1386242376
	    C     0.4711547003  -1.0381295652   0.0525125257
	    C     0.0184985176   1.4198657055  -0.0989192950
	    C     2.5695843031  -1.2083356011  -0.3017199652
	    C     3.2155128396   1.2415557153  -0.6404731731
	    C    -2.3657963959   2.0941284260   0.1849778862
	    H     3.5799371329  -1.5753399757  -0.4474668099
	    H    -0.5486713536  -3.3667608818   0.7953309244
	    H    -2.2274732576  -2.8041421663   0.9954928535
	    H     4.2148358139   0.8276562780  -0.7647897849
	    H     2.9263677799   1.7704494726  -1.5501468692
	    H     3.2156824830   1.9462705477   0.1925768281
	    H    -1.8544991808   3.0487295742   0.0820401112
	    H    -2.9179719340   2.0768694688   1.1251722031
	    H    -3.0753664494   1.9735810415  -0.6350325734
24

	    C    -1.8505044946  -0.2821493231   0.3351326401
	    N    -0.8749983663  -1.3231444848   0.4222248033
	    C    -1.3341483021  -2.7138250491   0.5590224034
	    H    -1.4720032854  -3.1918660863  -0.4136908434
	    O     0.3422624591   2.5671537605  -0.4238878508
	    O    -3.0443993550  -0.4866226659   0.4856513376
	    N     2.2788403344   0.1069801096  -0.3879986248
	    N    -1.3425188184   1.0420890025   0.0936498208
	    N     1.5072348758  -1.9724922202   0.0714351752
	    C     0.8995488879   0.2220616849  -0.1592145015
	    C     0.4686982385  -1.0335004384   0.1130138646
	    C     0.0199990018   1.4103234144  -0.1930107700
	    C     2.5662245157  -1.2301971433  -0.2320917480
	    C     3.2164740472   1.1919050305  -0.7267588636
	    C    -2.3617974599   2.1060726982   0.0592393994
	    H     3.5757847021  -1.6076105315  -0.3549191373
	    H    -0.5974591334  -3.2795797507   1.1276718393
	    H    -2.2856505400  -2.7104671883   1.0883247935
	    H     4.2148236813   0.7688933002  -0.8256339459
	    H     2.9272682759   1.6625404620  -1.6678795278
	    H     3.2190737952   1.9481168143   0.0598434766
	    H    -1.8500700211   3.0494863343  -0.1178942127
	    H    -2.8990753334   2.1563968896   1.0069205729
	    H    -3.0844902614   1.9307408370  -0.7390587336
24

	    C    -1.8547071344  -0.2624949549   0.3323380429
	    N    -0.9032401259  -1.3283289851   0.3315391182
	    C    -1.3853027530  -2.7152779882   0.4121281479
	    H    -1.4394559104  -3.1799061740  -0.5750358422
	    O     0.3945487656   2.5805896295  -0.2705597566
	    O    -3.0503258407  -0.4484829630   0.4935400858
	    N     2.2788124423   0.0821535828  -0.3961895376
	    N    -1.3201133723   1.0619020165   0.1599934822
	    N     1.4633618659  -2.0049675700  -0.0640109415
	    C     0.9029138406   0.2124108053  -0.1554115120
	    C     0.4457289505  -1.0481283092   0.0402038256
	    C     0.0487833317   1.4185347457  -0.1110763697
	    C     2.5370543792  -1.2682179535  -0.3269863976
	    C     3.2390827126   1.1657146666  -0.6695624071
	    C    -2.3151429329   2.1481800633   0.2055547943
	    H     3.5376790592  -1.6589169986  -0.4780876615
	    H    -0.7123253532  -3.2999474078   1.0387043718
	    H    -2.3806996568  -2.7015450714   0.8530803584
	    H     4.2270562958   0.7279282383  -0.8024205657
	    H     2.9557270077   1.7030805215  -1.5760707358
	    H     3.2629579067   1.8687620621   0.1645731337
	    H    -1.7845914867   3.0889395249   0.0760944536
	    H    -2.8369798259   2.1539602423   1.1631491955
	    H    -3.0534222398   2.0364500190  -0.5898615446
24

	    C    -1.8585645692  -0.2164135902   0.3470506658
	    N    -0.9246909833  -1.2962391477   0.3880528603
	    C    -1.4198549623  -2.6670489092   0.5808519253
	    H    -1.3882860151  -3.2360009930  -0.3506951164
	    O     0.4298453245   2.5545550679  -0.4227903647
	    O    -3.0545750663  -0.3732109856   0.5348034260
	    N     2.2801715127   0.0271469274  -0.3979100884
	    N    -1.3061119699   1.0867661435   0.0907544297
	    N     1.4338305626  -2.0263163364   0.0480836777
	    C     0.9053489739   0.1901080932  -0.1711727557
	    C     0.4295957325  -1.0508962883   0.0931381757
	    C     0.0681043406   1.4083876678  -0.1973329147
	    C     2.5190070694  -1.3205373072  -0.2505639924
	    C     3.2567803985   1.0799508014  -0.7277026798
	    C    -2.2842757551   2.1891782812   0.0818981267
	    H     3.5146708208  -1.7329972912  -0.3741065210
	    H    -0.8126498696  -3.1813733138   1.3258845693
	    H    -2.4500946850  -2.6035936531   0.9267026221
	    H     4.2389360134   0.6215884004  -0.8310577875
	    H     2.9845179622   1.5690479694  -1.6644357848
	    H     3.2875096850   1.8286929176   0.0654411113
	    H    -1.7412976627   3.1120880965  -0.1096221270
	    H    -2.7950480326   2.2607569051   1.0428412883
	    H    -3.0330973490   2.0411011637  -0.6975032331
24

	    C    -1.8597365709  -0.2021162759   0.3513665261
	    N    -0.9507624990  -1.3015758855   0.2909069544
	    C    -1.4644901909  -2.6709298212   0.4384427421
	    H    -1.3661889400  -3.2296309791  -0.4941790810
	    O     0.4762180071   2.5675843634  -0.2661154646
	    O    -3.0543153935  -0.3461060546   0.5579998907
	    N     2.2773633604   0.0086569528  -0.4159534824
	    N    -1.2848104937   1.1030956234   0.1648524883
	    N     1.3925888522  -2.0528375419  -0.1002012239
	    C     0.9068398530   0.1830677126  -0.1722020453
	    C     0.4077722554  -1.0631974555   0.0124763646
	    C     0.0936430624   1.4162791882  -0.1125820806
	    C     2.4902388929  -1.3501409565  -0.3578987058
	    C     3.2733379519   1.0616876073  -0.6806559793
	    C    -2.2391129343   2.2233289695   0.2462388781
	    H     3.4772277349  -1.7727922509  -0.5126822912
	    H    -0.9190725218  -3.1990194149   1.2213880318
	    H    -2.5167079904  -2.6020013182   0.7086527725
	    H     4.2454414935   0.5919238540  -0.8211969943
	    H     3.0059700032   1.6180504607  -1.5805281865
	    H     3.3235440890   1.7545808718   0.1607985283
	    H    -1.6808775422   3.1451575495   0.0983364011
	    H    -2.7270789439   2.2466121245   1.2213888953
	    H    -3.0077907656   2.1377572025  -0.5230759965
24

	    C    -1.8610701329  -0.1922648041   0.3505139978
	    N    -0.9522999567  -1.2929577687   0.3207190370
	    C    -1.4550501697  -2.6514809392   0.5701990708
	    H    -1.2682063878  -3.2966346773  -0.2897075938
	    O     0.4685439119   2.5539386640  -0.3850123884
	    O    -3.0532181463  -0.3285958709   0.5757440004
	    N     2.2801892970  -0.0020821429  -0.4008758666
	    N    -1.2909695059   1.1038104799   0.0975819377
	    N     1.3989727318  -2.0508961324  -0.0030961296
	    C     0.9063512658   0.1776383933  -0.1807120271
	    C     0.4094857060  -1.0611311842   0.0537118901
	    C     0.0886455342   1.4092761964  -0.1828180331
	    C     2.4971040108  -1.3560437255  -0.2794116021
	    C     3.2755230404   1.0419984887  -0.7010553648
	    C    -2.2475166235   2.2245326146   0.1330519715
	    H     3.4873349154  -1.7812284887  -0.4035246137
	    H    -0.9718066872  -3.0877152805   1.4457361158
	    H    -2.5270534917  -2.5796925729   0.7449386659
	    H     4.2507155872   0.5702138376  -0.8098561457
	    H     3.0163526845   1.5568278426  -1.6276482567
	    H     3.3139987879   1.7717552662   0.1092863889
	    H    -1.6934937150   3.1390254996  -0.0669921705
	    H    -2.7256913354   2.2962660466   1.1107670417
	    H    -3.0236310726   2.0979899859  -0.6229360998
